&jules_frac
file='../outputs/qrparm.veg.frac.nc',
frac_name='field1391',
/
&jules_soil_props
const_z=.true.,
file='../outputs/qrparm.soil.nc',
nvars=9,
use_file=9*.true.,
var='b','sathh','satcon','sm_sat','sm_crit','sm_wilt','hcap',
'hcon','albsoil',
var_name='field1381','field342','field333','field332','field330',
'field329','field335','field336','field1395',
/
&jules_agric
/
&jules_co2
/
