&jules_time
l_360=.false.,
l_leap=.true.,
main_run_start='2000-01-01 00:00:00',
main_run_end='2010-01-01 00:00:00',
timestep_len=3600,
/
&jules_spinup
max_spinup_cycles=0,
/
